*SPEF "IEEE 1481-1998"
*DESIGN "fsm"
*DATE "Sun Dec  1 15:54:56 2019"
*VENDOR "Cadence Design Systems, Inc."
*PROGRAM "Encounter"
*VERSION "14.13-s036_1"
*DESIGN_FLOW "PIN_CAP NONE" "NAME_SCOPE LOCAL"
*DIVIDER /
*DELIMITER :
*BUS_DELIMITER []
*T_UNIT 1 NS
*C_UNIT 1 PF
*R_UNIT 1 OHM
*L_UNIT 1 HENRY

// MMMC spef file for corner 'rcWorst'

*NAME_MAP

*1 mul_261_52/FE_OFN7_shutter_setting_output_4_
*2 FE_OFN6_aperture_multiplier_1_
*3 FE_OFN5_aperture_multiplier_3_
*4 FE_OFN4_aperture_multiplier_7_
*5 FE_OFN3_shutter_setting_output_0_
*6 FE_OFN2_shutter_setting_output_2_
*7 FE_OFN0_output_data_valid
*8 clk
*9 reset
*10 power_btn
*11 mode_inc
*12 mode_dec
*13 fstop_inc
*14 fstop_dec
*15 shutter_inc
*16 shutter_dec
*17 shutter_btn
*18 sensor_data[14]
*19 sensor_data[13]
*20 sensor_data[12]
*21 sensor_data[11]
*22 sensor_data[10]
*23 sensor_data[9]
*24 sensor_data[8]
*25 sensor_data[7]
*26 sensor_data[6]
*27 sensor_data[5]
*28 sensor_data[4]
*29 sensor_data[3]
*30 sensor_data[2]
*31 sensor_data[1]
*32 sensor_data[0]
*33 output_data[15]
*34 output_data[14]
*35 output_data[13]
*36 output_data[12]
*37 output_data[11]
*38 output_data[10]
*39 output_data[9]
*40 output_data[8]
*41 output_data[7]
*42 output_data[6]
*43 output_data[5]
*44 output_data[4]
*45 output_data[3]
*46 output_data[2]
*47 output_data[1]
*48 output_data[0]
*49 output_data_valid
*50 aperture_setting[2]
*51 aperture_setting[1]
*52 aperture_setting[0]
*53 shutter_setting_output[7]
*54 shutter_setting_output[6]
*55 shutter_setting_output[5]
*56 shutter_setting_output[4]
*57 shutter_setting_output[3]
*58 shutter_setting_output[2]
*59 shutter_setting_output[1]
*60 shutter_setting_output[0]
*61 aperture_multiplier[7]
*62 aperture_multiplier[6]
*63 aperture_multiplier[5]
*64 aperture_multiplier[4]
*65 aperture_multiplier[3]
*66 aperture_multiplier[2]
*67 aperture_multiplier[1]
*68 aperture_multiplier[0]
*69 shutter_setting[2]
*70 shutter_setting[1]
*71 shutter_setting[0]
*72 current_state[3]
*73 current_state[2]
*74 current_state[1]
*75 current_state[0]
*76 prev_mode_state[1]
*77 prev_mode_state[0]
*78 UNCONNECTED0
*79 n_0
*80 n_1
*81 n_2
*82 n_3
*83 n_4
*84 n_5
*85 n_6
*86 n_7
*87 n_8
*88 n_9
*89 n_10
*90 n_11
*91 n_12
*92 n_13
*93 n_14
*94 n_15
*95 n_16
*96 n_17
*97 n_18
*98 n_19
*99 n_20
*100 n_21
*101 n_22
*102 n_23
*103 n_24
*104 n_25
*105 n_26
*106 n_27
*107 n_28
*108 n_29
*109 n_30
*110 n_31
*111 n_32
*112 n_33
*113 n_34
*114 n_35
*115 n_36
*116 n_37
*117 n_38
*118 n_40
*119 n_41
*120 n_42
*121 n_43
*122 n_44
*123 n_45
*124 n_46
*125 n_47
*126 n_48
*127 n_49
*128 n_50
*129 n_51
*130 n_52
*131 n_53
*132 n_54
*133 n_55
*134 n_56
*135 n_57
*136 n_58
*137 n_59
*138 n_60
*139 n_61
*140 n_62
*141 n_64
*142 n_65
*143 n_66
*144 n_67
*145 n_68
*146 n_69
*147 n_70
*148 n_71
*149 n_72
*150 n_73
*151 n_74
*152 n_75
*153 n_76
*154 n_77
*155 n_78
*156 n_79
*157 n_80
*158 n_81
*159 n_82
*160 n_83
*161 n_84
*162 n_85
*163 n_87
*164 n_88
*165 n_89
*166 n_90
*167 n_91
*168 n_108
*169 n_109
*170 n_110
*171 n_111
*172 n_112
*173 n_113
*174 n_114
*175 n_115
*176 n_117
*177 n_118
*178 n_119
*179 n_120
*180 n_121
*181 n_122
*182 n_123
*183 n_124
*184 n_125
*185 n_126
*186 n_127
*187 n_128
*188 n_129
*189 n_130
*190 n_131
*191 n_154
*192 n_155
*193 n_156
*194 n_157
*195 n_158
*196 n_159
*197 n_160
*198 n_161
*199 n_162
*200 n_163
*201 n_164
*202 n_165
*203 n_166
*204 n_167
*205 n_168
*206 n_173
*207 n_174
*208 power_on
*209 scd_done
*210 APERTURE_SETTING_FF/n_1
*211 APERTURE_SETTING_FF/n_2
*212 COUNTDOWN_MODULE/count[8]
*213 COUNTDOWN_MODULE/count[7]
*214 COUNTDOWN_MODULE/count[6]
*215 COUNTDOWN_MODULE/count[5]
*216 COUNTDOWN_MODULE/count[4]
*217 COUNTDOWN_MODULE/count[3]
*218 COUNTDOWN_MODULE/count[2]
*219 COUNTDOWN_MODULE/count[1]
*220 COUNTDOWN_MODULE/count[0]
*221 COUNTDOWN_MODULE/n_0
*222 COUNTDOWN_MODULE/n_1
*223 COUNTDOWN_MODULE/n_2
*224 COUNTDOWN_MODULE/n_3
*225 COUNTDOWN_MODULE/n_4
*226 COUNTDOWN_MODULE/n_5
*227 COUNTDOWN_MODULE/n_6
*228 COUNTDOWN_MODULE/n_7
*229 COUNTDOWN_MODULE/n_8
*230 COUNTDOWN_MODULE/n_10
*231 COUNTDOWN_MODULE/n_11
*232 COUNTDOWN_MODULE/n_12
*233 COUNTDOWN_MODULE/n_13
*234 COUNTDOWN_MODULE/n_14
*235 COUNTDOWN_MODULE/n_15
*236 COUNTDOWN_MODULE/n_16
*237 COUNTDOWN_MODULE/n_17
*238 COUNTDOWN_MODULE/n_18
*239 COUNTDOWN_MODULE/n_19
*240 COUNTDOWN_MODULE/n_20
*241 COUNTDOWN_MODULE/n_21
*242 COUNTDOWN_MODULE/n_22
*243 COUNTDOWN_MODULE/n_23
*244 COUNTDOWN_MODULE/n_24
*245 COUNTDOWN_MODULE/n_25
*246 COUNTDOWN_MODULE/n_26
*247 COUNTDOWN_MODULE/n_27
*248 COUNTDOWN_MODULE/n_28
*249 COUNTDOWN_MODULE/n_29
*250 COUNTDOWN_MODULE/n_30
*251 COUNTDOWN_MODULE/n_32
*252 COUNTDOWN_MODULE/n_33
*253 COUNTDOWN_MODULE/n_34
*254 COUNTDOWN_MODULE/n_35
*255 COUNTDOWN_MODULE/n_36
*256 COUNTDOWN_MODULE/n_37
*257 COUNTDOWN_MODULE/n_38
*258 COUNTDOWN_MODULE/n_39
*259 COUNTDOWN_MODULE/n_40
*260 COUNTDOWN_MODULE/n_41
*261 COUNTDOWN_MODULE/n_42
*262 COUNTDOWN_MODULE/n_43
*263 COUNTDOWN_MODULE/n_44
*264 COUNTDOWN_MODULE/n_45
*265 COUNTDOWN_MODULE/n_46
*266 COUNTDOWN_MODULE/n_47
*267 COUNTDOWN_MODULE/n_49
*268 COUNTDOWN_MODULE/n_50
*269 COUNTDOWN_MODULE/n_51
*270 COUNTDOWN_MODULE/n_57
*271 COUNTDOWN_MODULE/n_72
*272 COUNTDOWN_MODULE/n_73
*273 FSTOP_DECODER/n_0
*274 FSTOP_DECODER/n_1
*275 FSTOP_DECODER/n_2
*276 FSTOP_DECODER/n_3
*277 FSTOP_DECODER/n_4
*278 SHUTTER_DECODER/n_0
*279 SHUTTER_DECODER/n_1
*280 SHUTTER_DECODER/n_2
*281 SHUTTER_DECODER/n_3
*282 SHUTTER_DECODER/n_4
*283 SHUTTER_SETTING_FF/n_1
*284 SHUTTER_SETTING_FF/n_2
*285 mul_261_30/n_0
*286 mul_261_30/n_2
*287 mul_261_30/n_3
*288 mul_261_30/n_4
*289 mul_261_30/n_5
*290 mul_261_30/n_6
*291 mul_261_30/n_7
*292 mul_261_30/n_8
*293 mul_261_30/n_9
*294 mul_261_30/n_10
*295 mul_261_30/n_11
*296 mul_261_30/n_12
*297 mul_261_30/n_13
*298 mul_261_30/n_14
*299 mul_261_30/n_15
*300 mul_261_30/n_16
*301 mul_261_30/n_17
*302 mul_261_30/n_18
*303 mul_261_30/n_20
*304 mul_261_30/n_21
*305 mul_261_30/n_22
*306 mul_261_30/n_23
*307 mul_261_30/n_24
*308 mul_261_30/n_25
*309 mul_261_30/n_26
*310 mul_261_30/n_27
*311 mul_261_30/n_28
*312 mul_261_30/n_29
*313 mul_261_30/n_30
*314 mul_261_30/n_31
*315 mul_261_30/n_32
*316 mul_261_30/n_33
*317 mul_261_30/n_34
*318 mul_261_30/n_35
*319 mul_261_30/n_36
*320 mul_261_30/n_37
*321 mul_261_30/n_38
*322 mul_261_30/n_39
*323 mul_261_30/n_40
*324 mul_261_30/n_41
*325 mul_261_30/n_42
*326 mul_261_30/n_43
*327 mul_261_30/n_44
*328 mul_261_30/n_45
*329 mul_261_30/n_46
*330 mul_261_30/n_47
*331 mul_261_30/n_48
*332 mul_261_30/n_49
*333 mul_261_30/n_50
*334 mul_261_30/n_51
*335 mul_261_30/n_52
*336 mul_261_30/n_53
*337 mul_261_30/n_54
*338 mul_261_30/n_55
*339 mul_261_30/n_56
*340 mul_261_30/n_57
*341 mul_261_30/n_58
*342 mul_261_30/n_59
*343 mul_261_30/n_60
*344 mul_261_30/n_61
*345 mul_261_30/n_62
*346 mul_261_30/n_63
*347 mul_261_30/n_64
*348 mul_261_30/n_65
*349 mul_261_30/n_66
*350 mul_261_30/n_67
*351 mul_261_30/n_68
*352 mul_261_30/n_69
*353 mul_261_30/n_70
*354 mul_261_30/n_71
*355 mul_261_30/n_72
*356 mul_261_30/n_73
*357 mul_261_30/n_74
*358 mul_261_30/n_75
*359 mul_261_30/n_76
*360 mul_261_30/n_77
*361 mul_261_30/n_78
*362 mul_261_30/n_79
*363 mul_261_30/n_80
*364 mul_261_30/n_81
*365 mul_261_30/n_82
*366 mul_261_30/n_83
*367 mul_261_30/n_84
*368 mul_261_30/n_85
*369 mul_261_30/n_86
*370 mul_261_30/n_87
*371 mul_261_30/n_88
*372 mul_261_30/n_89
*373 mul_261_30/n_90
*374 mul_261_30/n_91
*375 mul_261_30/n_92
*376 mul_261_30/n_93
*377 mul_261_30/n_94
*378 mul_261_30/n_95
*379 mul_261_30/n_96
*380 mul_261_30/n_97
*381 mul_261_30/n_98
*382 mul_261_30/n_99
*383 mul_261_30/n_100
*384 mul_261_30/n_101
*385 mul_261_30/n_102
*386 mul_261_30/n_103
*387 mul_261_30/n_104
*388 mul_261_30/n_105
*389 mul_261_30/n_106
*390 mul_261_30/n_107
*391 mul_261_30/n_108
*392 mul_261_30/n_109
*393 mul_261_30/n_110
*394 mul_261_30/n_111
*395 mul_261_30/n_112
*396 mul_261_30/n_113
*397 mul_261_30/n_114
*398 mul_261_30/n_115
*399 mul_261_30/n_116
*400 mul_261_30/n_117
*401 mul_261_30/n_118
*402 mul_261_30/n_119
*403 mul_261_30/n_120
*404 mul_261_30/n_121
*405 mul_261_30/n_122
*406 mul_261_30/n_123
*407 mul_261_30/n_124
*408 mul_261_30/n_125
*409 mul_261_30/n_126
*410 mul_261_30/n_127
*411 mul_261_30/n_128
*412 mul_261_30/n_129
*413 mul_261_30/n_130
*414 mul_261_30/n_131
*415 mul_261_30/n_132
*416 mul_261_30/n_133
*417 mul_261_30/n_134
*418 mul_261_30/n_135
*419 mul_261_30/n_136
*420 mul_261_30/n_137
*421 mul_261_30/n_138
*422 mul_261_30/n_139
*423 mul_261_30/n_140
*424 mul_261_30/n_141
*425 mul_261_30/n_142
*426 mul_261_30/n_143
*427 mul_261_30/n_144
*428 mul_261_30/n_145
*429 mul_261_30/n_146
*430 mul_261_30/n_147
*431 mul_261_30/n_148
*432 mul_261_30/n_150
*433 mul_261_30/n_151
*434 mul_261_30/n_152
*435 mul_261_30/n_153
*436 mul_261_30/n_154
*437 mul_261_30/n_155
*438 mul_261_30/n_156
*439 mul_261_30/n_157
*440 mul_261_30/n_158
*441 mul_261_30/n_159
*442 mul_261_30/n_160
*443 mul_261_30/n_161
*444 mul_261_30/n_162
*445 mul_261_30/n_163
*446 mul_261_30/n_164
*447 mul_261_30/n_165
*448 mul_261_30/n_166
*449 mul_261_30/n_168
*450 mul_261_30/n_169
*451 mul_261_30/n_170
*452 mul_261_30/n_171
*453 mul_261_30/n_172
*454 mul_261_30/n_173
*455 mul_261_30/n_174
*456 mul_261_30/n_175
*457 mul_261_30/n_176
*458 mul_261_30/n_177
*459 mul_261_30/n_178
*460 mul_261_30/n_179
*461 mul_261_30/n_180
*462 mul_261_30/n_181
*463 mul_261_30/n_182
*464 mul_261_30/n_183
*465 mul_261_30/n_184
*466 mul_261_30/n_185
*467 mul_261_30/n_186
*468 mul_261_30/n_187
*469 mul_261_30/n_188
*470 mul_261_30/n_189
*471 mul_261_30/n_190
*472 mul_261_30/n_191
*473 mul_261_30/n_193
*474 mul_261_30/n_194
*475 mul_261_30/n_195
*476 mul_261_30/n_196
*477 mul_261_30/n_197
*478 mul_261_30/n_198
*479 mul_261_30/n_199
*480 mul_261_30/n_200
*481 mul_261_30/n_201
*482 mul_261_30/n_202
*483 mul_261_30/n_203
*484 mul_261_30/n_204
*485 mul_261_30/n_205
*486 mul_261_30/n_207
*487 mul_261_30/n_208
*488 mul_261_30/n_209
*489 mul_261_30/n_210
*490 mul_261_30/n_211
*491 mul_261_30/n_212
*492 mul_261_30/n_213
*493 mul_261_30/n_214
*494 mul_261_30/n_215
*495 mul_261_30/n_217
*496 mul_261_30/n_218
*497 mul_261_30/n_219
*498 mul_261_30/n_220
*499 mul_261_30/n_221
*500 mul_261_30/n_222
*501 mul_261_30/n_223
*502 mul_261_30/n_224
*503 mul_261_30/n_225
*504 mul_261_30/n_226
*505 mul_261_30/n_227
*506 mul_261_30/n_229
*507 mul_261_30/n_230
*508 mul_261_30/n_232
*509 mul_261_30/n_233
*510 mul_261_30/n_235
*511 mul_261_30/n_236
*512 mul_261_30/n_238
*513 mul_261_30/n_239
*514 mul_261_30/n_241
*515 mul_261_30/n_242
*516 mul_261_30/n_244
*517 mul_261_30/n_245
*518 mul_261_30/n_247
*519 mul_261_30/n_248
*520 mul_261_52/n_0
*521 mul_261_52/n_2
*522 mul_261_52/n_3
*523 mul_261_52/n_4
*524 mul_261_52/n_5
*525 mul_261_52/n_6
*526 mul_261_52/n_7
*527 mul_261_52/n_8
*528 mul_261_52/n_9
*529 mul_261_52/n_10
*530 mul_261_52/n_11
*531 mul_261_52/n_12
*532 mul_261_52/n_13
*533 mul_261_52/n_14
*534 mul_261_52/n_15
*535 mul_261_52/n_16
*536 mul_261_52/n_17
*537 mul_261_52/n_18
*538 mul_261_52/n_19
*539 mul_261_52/n_20
*540 mul_261_52/n_21
*541 mul_261_52/n_22
*542 mul_261_52/n_23
*543 mul_261_52/n_24
*544 mul_261_52/n_25
*545 mul_261_52/n_26
*546 mul_261_52/n_27
*547 mul_261_52/n_28
*548 mul_261_52/n_29
*549 mul_261_52/n_30
*550 mul_261_52/n_31
*551 mul_261_52/n_32
*552 mul_261_52/n_33
*553 mul_261_52/n_34
*554 mul_261_52/n_35
*555 mul_261_52/n_36
*556 mul_261_52/n_37
*557 mul_261_52/n_38
*558 mul_261_52/n_39
*559 mul_261_52/n_40
*560 mul_261_52/n_41
*561 mul_261_52/n_42
*562 mul_261_52/n_43
*563 mul_261_52/n_44
*564 mul_261_52/n_45
*565 mul_261_52/n_46
*566 mul_261_52/n_47
*567 mul_261_52/n_48
*568 mul_261_52/n_49
*569 mul_261_52/n_50
*570 mul_261_52/n_51
*571 mul_261_52/n_52
*572 mul_261_52/n_53
*573 mul_261_52/n_54
*574 mul_261_52/n_55
*575 mul_261_52/n_56
*576 mul_261_52/n_57
*577 mul_261_52/n_58
*578 mul_261_52/n_59
*579 mul_261_52/n_60
*580 mul_261_52/n_61
*581 mul_261_52/n_62
*582 mul_261_52/n_63
*583 mul_261_52/n_64
*584 mul_261_52/n_65
*585 mul_261_52/n_66
*586 mul_261_52/n_67
*587 mul_261_52/n_68
*588 mul_261_52/n_69
*589 mul_261_52/n_70
*590 mul_261_52/n_71
*591 mul_261_52/n_72
*592 mul_261_52/n_73
*593 mul_261_52/n_74
*594 mul_261_52/n_75
*595 mul_261_52/n_76
*596 mul_261_52/n_77
*597 mul_261_52/n_78
*598 mul_261_52/n_79
*599 mul_261_52/n_81
*600 mul_261_52/n_82
*601 mul_261_52/n_83
*602 mul_261_52/n_84
*603 mul_261_52/n_85
*604 mul_261_52/n_86
*605 mul_261_52/n_87
*606 mul_261_52/n_88
*607 mul_261_52/n_89
*608 mul_261_52/n_90
*609 mul_261_52/n_91
*610 mul_261_52/n_92
*611 mul_261_52/n_93
*612 mul_261_52/n_94
*613 mul_261_52/n_95
*614 mul_261_52/n_96
*615 mul_261_52/n_97
*616 mul_261_52/n_98
*617 mul_261_52/n_99
*618 mul_261_52/n_100
*619 mul_261_52/n_101
*620 mul_261_52/n_102
*621 mul_261_52/n_103
*622 mul_261_52/n_104
*623 mul_261_52/n_105
*624 mul_261_52/n_106
*625 mul_261_52/n_107
*626 mul_261_52/n_108
*627 mul_261_52/n_109
*628 mul_261_52/n_110
*629 mul_261_52/n_111
*630 mul_261_52/n_112
*631 mul_261_52/n_113
*632 mul_261_52/n_114
*633 mul_261_52/n_115
*634 mul_261_52/n_116
*635 mul_261_52/n_117
*636 mul_261_52/n_118
*637 mul_261_52/n_119
*638 mul_261_52/n_120
*639 mul_261_52/n_121
*640 mul_261_52/n_122
*641 mul_261_52/n_123
*642 mul_261_52/n_124
*643 mul_261_52/n_125
*644 mul_261_52/n_126
*645 mul_261_52/n_127
*646 mul_261_52/n_128
*647 mul_261_52/n_129
*648 mul_261_52/n_130
*649 mul_261_52/n_131
*650 mul_261_52/n_132
*651 mul_261_52/n_133
*652 mul_261_52/n_134
*653 mul_261_52/n_135
*654 mul_261_52/n_136
*655 mul_261_52/n_137
*656 mul_261_52/n_138
*657 mul_261_52/n_139
*658 mul_261_52/n_140
*659 mul_261_52/n_142
*660 mul_261_52/n_143
*661 mul_261_52/n_144
*662 mul_261_52/n_145
*663 mul_261_52/n_146
*664 mul_261_52/n_147
*665 mul_261_52/n_148
*666 mul_261_52/n_149
*667 mul_261_52/n_150
*668 mul_261_52/n_151
*669 mul_261_52/n_152
*670 mul_261_52/n_153
*671 mul_261_52/n_154
*672 mul_261_52/n_155
*673 mul_261_52/n_156
*674 mul_261_52/n_157
*675 mul_261_52/n_158
*676 mul_261_52/n_159
*677 mul_261_52/n_160
*678 mul_261_52/n_161
*679 mul_261_52/n_162
*680 mul_261_52/n_163
*681 mul_261_52/n_164
*682 mul_261_52/n_165
*683 mul_261_52/n_166
*684 mul_261_52/n_167
*685 mul_261_52/n_168
*686 mul_261_52/n_170
*687 mul_261_52/n_171
*688 mul_261_52/n_172
*689 mul_261_52/n_173
*690 mul_261_52/n_174
*691 mul_261_52/n_175
*692 mul_261_52/n_176
*693 mul_261_52/n_177
*694 mul_261_52/n_178
*695 mul_261_52/n_179
*696 mul_261_52/n_180
*697 mul_261_52/n_181
*698 mul_261_52/n_182
*699 mul_261_52/n_183
*700 mul_261_52/n_184
*701 mul_261_52/n_185
*702 mul_261_52/n_186
*703 mul_261_52/n_187
*704 mul_261_52/n_188
*705 mul_261_52/n_189
*706 mul_261_52/n_191
*707 mul_261_52/n_192
*708 mul_261_52/n_193
*709 mul_261_52/n_194
*710 mul_261_52/n_195
*711 mul_261_52/n_196
*712 mul_261_52/n_197
*713 mul_261_52/n_199
*714 mul_261_52/n_200
*715 mul_261_52/n_201
*716 mul_261_52/n_202
*717 mul_261_52/n_203
*718 mul_261_52/n_204
*719 mul_261_52/n_205
*720 mul_261_52/n_206
*721 mul_261_52/n_207
*722 mul_261_52/n_208
*723 mul_261_52/n_209
*724 mul_261_52/n_210
*725 mul_261_52/n_212
*726 mul_261_52/n_213
*727 mul_261_52/n_214
*728 mul_261_52/n_216
*729 mul_261_52/n_217
*730 mul_261_52/n_219
*731 mul_261_52/n_220
*732 mul_261_52/n_222
*733 mul_261_52/n_223
*734 mul_261_52/n_225
*735 mul_261_52/n_226
*736 mul_261_52/n_228
*737 mul_261_52/n_229
*738 mul_261_52/n_231
*739 mul_261_52/n_232
*740 mul_261_52/n_234
*741 mul_261_52/n_235
*742 FE_OFC6_aperture_multiplier_1_
*743 FE_OFC5_aperture_multiplier_3_
*744 FE_OFC4_aperture_multiplier_7_
*745 FE_OFC3_shutter_setting_output_0_
*746 FE_OFC2_shutter_setting_output_2_
*747 FE_OFC1_output_data_valid
*748 APERTURE_SETTING_FF/q_reg\[0\]
*749 APERTURE_SETTING_FF/q_reg\[1\]
*750 APERTURE_SETTING_FF/q_reg\[2\]
*751 APERTURE_SETTING_FF/g57
*752 APERTURE_SETTING_FF/g58
*753 COUNTDOWN_MODULE/g374
*754 COUNTDOWN_MODULE/g375
*755 COUNTDOWN_MODULE/g376
*756 COUNTDOWN_MODULE/g377
*757 COUNTDOWN_MODULE/g378
*758 COUNTDOWN_MODULE/count_reg\[8\]
*759 COUNTDOWN_MODULE/count_reg\[7\]
*760 COUNTDOWN_MODULE/count_reg\[5\]
*761 COUNTDOWN_MODULE/g825
*762 COUNTDOWN_MODULE/g826
*763 COUNTDOWN_MODULE/g827
*764 COUNTDOWN_MODULE/count_reg\[4\]
*765 COUNTDOWN_MODULE/count_reg\[6\]
*766 COUNTDOWN_MODULE/g830
*767 COUNTDOWN_MODULE/g831
*768 COUNTDOWN_MODULE/g832
*769 COUNTDOWN_MODULE/g833
*770 COUNTDOWN_MODULE/g834
*771 COUNTDOWN_MODULE/count_reg\[3\]
*772 COUNTDOWN_MODULE/g836
*773 COUNTDOWN_MODULE/g837
*774 COUNTDOWN_MODULE/g838
*775 COUNTDOWN_MODULE/g839
*776 COUNTDOWN_MODULE/g840
*777 COUNTDOWN_MODULE/g841
*778 COUNTDOWN_MODULE/g842
*779 COUNTDOWN_MODULE/g843
*780 COUNTDOWN_MODULE/g845
*781 COUNTDOWN_MODULE/count_reg\[2\]
*782 COUNTDOWN_MODULE/g847
*783 COUNTDOWN_MODULE/g848
*784 COUNTDOWN_MODULE/g849
*785 COUNTDOWN_MODULE/g850
*786 COUNTDOWN_MODULE/g851
*787 COUNTDOWN_MODULE/g852
*788 COUNTDOWN_MODULE/count_reg\[1\]
*789 COUNTDOWN_MODULE/g854
*790 COUNTDOWN_MODULE/g855
*791 COUNTDOWN_MODULE/g856
*792 COUNTDOWN_MODULE/g857
*793 COUNTDOWN_MODULE/g858
*794 COUNTDOWN_MODULE/count_reg\[0\]
*795 COUNTDOWN_MODULE/g860
*796 COUNTDOWN_MODULE/g861
*797 COUNTDOWN_MODULE/g862
*798 COUNTDOWN_MODULE/g863
*799 COUNTDOWN_MODULE/g864
*800 COUNTDOWN_MODULE/g865
*801 COUNTDOWN_MODULE/g866
*802 COUNTDOWN_MODULE/g867
*803 COUNTDOWN_MODULE/g868
*804 COUNTDOWN_MODULE/g870
*805 COUNTDOWN_MODULE/g871
*806 COUNTDOWN_MODULE/g872
*807 COUNTDOWN_MODULE/g873
*808 COUNTDOWN_MODULE/g874
*809 COUNTDOWN_MODULE/g875
*810 COUNTDOWN_MODULE/g876
*811 COUNTDOWN_MODULE/g877
*812 COUNTDOWN_MODULE/g878
*813 COUNTDOWN_MODULE/g2
*814 COUNTDOWN_MODULE/g879
*815 FSTOP_DECODER/g147
*816 FSTOP_DECODER/g148
*817 FSTOP_DECODER/g149
*818 FSTOP_DECODER/g150
*819 FSTOP_DECODER/g151
*820 FSTOP_DECODER/g152
*821 FSTOP_DECODER/g153
*822 FSTOP_DECODER/g154
*823 FSTOP_DECODER/g155
*824 FSTOP_DECODER/g156
*825 FSTOP_DECODER/g157
*826 FSTOP_DECODER/g158
*827 FSTOP_DECODER/g159
*828 SHUTTER_DECODER/g147
*829 SHUTTER_DECODER/g148
*830 SHUTTER_DECODER/g149
*831 SHUTTER_DECODER/g150
*832 SHUTTER_DECODER/g151
*833 SHUTTER_DECODER/g152
*834 SHUTTER_DECODER/g153
*835 SHUTTER_DECODER/g154
*836 SHUTTER_DECODER/g155
*837 SHUTTER_DECODER/g156
*838 SHUTTER_DECODER/g157
*839 SHUTTER_DECODER/g158
*840 SHUTTER_DECODER/g159
*841 SHUTTER_SETTING_FF/q_reg\[0\]
*842 SHUTTER_SETTING_FF/q_reg\[1\]
*843 SHUTTER_SETTING_FF/q_reg\[2\]
*844 SHUTTER_SETTING_FF/g57
*845 SHUTTER_SETTING_FF/g58
*846 mul_261_30/g2332
*847 mul_261_30/g2333
*848 mul_261_30/g2334
*849 mul_261_30/g2335
*850 mul_261_30/g2336
*851 mul_261_30/g2337
*852 mul_261_30/g2338
*853 mul_261_30/g2339
*854 mul_261_30/g2340
*855 mul_261_30/g2341
*856 mul_261_30/g2342
*857 mul_261_30/g2343
*858 mul_261_30/g2344
*859 mul_261_30/g2345
*860 mul_261_30/g2346
*861 mul_261_30/g2347
*862 mul_261_30/g2348
*863 mul_261_30/g2349
*864 mul_261_30/g2350
*865 mul_261_30/g2351
*866 mul_261_30/g2352
*867 mul_261_30/g2353
*868 mul_261_30/g2354
*869 mul_261_30/g2355
*870 mul_261_30/g2356
*871 mul_261_30/g2357
*872 mul_261_30/g2358
*873 mul_261_30/g2359
*874 mul_261_30/g2360
*875 mul_261_30/g2361
*876 mul_261_30/g2362
*877 mul_261_30/g2363
*878 mul_261_30/g2364
*879 mul_261_30/g2365
*880 mul_261_30/g2366
*881 mul_261_30/g2367
*882 mul_261_30/g2368
*883 mul_261_30/g2369
*884 mul_261_30/g2370
*885 mul_261_30/g2371
*886 mul_261_30/g2372
*887 mul_261_30/g2373
*888 mul_261_30/g2374
*889 mul_261_30/g2375
*890 mul_261_30/g2376
*891 mul_261_30/g2377
*892 mul_261_30/g2378
*893 mul_261_30/g2379
*894 mul_261_30/g2380
*895 mul_261_30/g2381
*896 mul_261_30/g2382
*897 mul_261_30/g2383
*898 mul_261_30/g2384
*899 mul_261_30/g2385
*900 mul_261_30/g2386
*901 mul_261_30/g2387
*902 mul_261_30/g2388
*903 mul_261_30/g2389
*904 mul_261_30/g2390
*905 mul_261_30/g2391
*906 mul_261_30/g2392
*907 mul_261_30/g2393
*908 mul_261_30/g2394
*909 mul_261_30/g2395
*910 mul_261_30/g2396
*911 mul_261_30/g2397
*912 mul_261_30/g2398
*913 mul_261_30/g2399
*914 mul_261_30/g2400
*915 mul_261_30/g2401
*916 mul_261_30/g2402
*917 mul_261_30/g2403
*918 mul_261_30/g2404
*919 mul_261_30/g2405
*920 mul_261_30/g2406
*921 mul_261_30/g2407
*922 mul_261_30/g2408
*923 mul_261_30/g2409
*924 mul_261_30/g2410
*925 mul_261_30/g2411
*926 mul_261_30/g2412
*927 mul_261_30/g2413
*928 mul_261_30/g2414
*929 mul_261_30/g2415
*930 mul_261_30/g2416
*931 mul_261_30/g2417
*932 mul_261_30/g2418
*933 mul_261_30/g2419
*934 mul_261_30/g2420
*935 mul_261_30/g2421
*936 mul_261_30/g2422
*937 mul_261_30/g2423
*938 mul_261_30/g2424
*939 mul_261_30/g2425
*940 mul_261_30/g2426
*941 mul_261_30/g2427
*942 mul_261_30/g2428
*943 mul_261_30/g2429
*944 mul_261_30/g2430
*945 mul_261_30/g2431
*946 mul_261_30/g2432
*947 mul_261_30/g2433
*948 mul_261_30/g2434
*949 mul_261_30/g2435
*950 mul_261_30/g2436
*951 mul_261_30/g2437
*952 mul_261_30/g2438
*953 mul_261_30/g2439
*954 mul_261_30/g2440
*955 mul_261_30/g2441
*956 mul_261_30/g2442
*957 mul_261_30/g2443
*958 mul_261_30/g2444
*959 mul_261_30/g2445
*960 mul_261_30/g2446
*961 mul_261_30/g2447
*962 mul_261_30/g2448
*963 mul_261_30/g2449
*964 mul_261_30/g2450
*965 mul_261_30/g2451
*966 mul_261_30/g2452
*967 mul_261_30/g2454
*968 mul_261_30/g2455
*969 mul_261_30/g2456
*970 mul_261_30/g2457
*971 mul_261_30/g2458
*972 mul_261_30/g2459
*973 mul_261_30/g2460
*974 mul_261_30/g2461
*975 mul_261_30/g2462
*976 mul_261_30/g2463
*977 mul_261_30/g2464
*978 mul_261_30/g2465
*979 mul_261_30/g2466
*980 mul_261_30/g2467
*981 mul_261_30/g2468
*982 mul_261_30/g2469
*983 mul_261_30/g2470
*984 mul_261_30/g2471
*985 mul_261_30/g2472
*986 mul_261_30/g2474
*987 mul_261_30/g2475
*988 mul_261_30/g2476
*989 mul_261_30/g2477
*990 mul_261_30/g2478
*991 mul_261_30/g2479
*992 mul_261_30/g2480
*993 mul_261_30/g2481
*994 mul_261_30/g2482
*995 mul_261_30/g2483
*996 mul_261_30/g2484
*997 mul_261_30/g2485
*998 mul_261_30/g2486
*999 mul_261_30/g2487
*1000 mul_261_30/g2488
*1001 mul_261_30/g2489
*1002 mul_261_30/g2490
*1003 mul_261_30/g2491
*1004 mul_261_30/g2492
*1005 mul_261_30/g2493
*1006 mul_261_30/g2494
*1007 mul_261_30/g2495
*1008 mul_261_30/g2496
*1009 mul_261_30/g2497
*1010 mul_261_30/g2498
*1011 mul_261_30/g2499
*1012 mul_261_30/g2500
*1013 mul_261_30/g2501
*1014 mul_261_30/g2502
*1015 mul_261_30/g2503
*1016 mul_261_30/g2504
*1017 mul_261_30/g2505
*1018 mul_261_30/g2506
*1019 mul_261_30/g2507
*1020 mul_261_30/g2508
*1021 mul_261_30/g2509
*1022 mul_261_30/g2510
*1023 mul_261_30/g2511
*1024 mul_261_30/g2512
*1025 mul_261_30/g2513
*1026 mul_261_30/g2514
*1027 mul_261_30/g2515
*1028 mul_261_30/g2516
*1029 mul_261_30/g2517
*1030 mul_261_30/g2518
*1031 mul_261_30/g2519
*1032 mul_261_30/g2520
*1033 mul_261_30/g2521
*1034 mul_261_30/g2522
*1035 mul_261_30/g2523
*1036 mul_261_30/g2524
*1037 mul_261_30/g2525
*1038 mul_261_30/g2526
*1039 mul_261_30/g2527
*1040 mul_261_30/g2528
*1041 mul_261_30/g2529
*1042 mul_261_30/g2530
*1043 mul_261_30/g2531
*1044 mul_261_30/g2532
*1045 mul_261_30/g2533
*1046 mul_261_30/g2534
*1047 mul_261_30/g2535
*1048 mul_261_30/g2536
*1049 mul_261_30/g2537
*1050 mul_261_30/g2538
*1051 mul_261_30/g2539
*1052 mul_261_30/g2540
*1053 mul_261_30/g2541
*1054 mul_261_30/g2542
*1055 mul_261_30/g2543
*1056 mul_261_30/g2544
*1057 mul_261_30/g2545
*1058 mul_261_30/g2546
*1059 mul_261_30/g2547
*1060 mul_261_30/g2
*1061 mul_261_52/FE_OFC7_shutter_setting_output_4_
*1062 mul_261_52/g2342
*1063 mul_261_52/g2343
*1064 mul_261_52/g2344
*1065 mul_261_52/g2345
*1066 mul_261_52/g2346
*1067 mul_261_52/g2347
*1068 mul_261_52/g2348
*1069 mul_261_52/g2349
*1070 mul_261_52/g2350
*1071 mul_261_52/g2351
*1072 mul_261_52/g2352
*1073 mul_261_52/g2353
*1074 mul_261_52/g2354
*1075 mul_261_52/g2355
*1076 mul_261_52/g2356
*1077 mul_261_52/g2357
*1078 mul_261_52/g2358
*1079 mul_261_52/g2359
*1080 mul_261_52/g2360
*1081 mul_261_52/g2361
*1082 mul_261_52/g2362
*1083 mul_261_52/g2363
*1084 mul_261_52/g2364
*1085 mul_261_52/g2365
*1086 mul_261_52/g2366
*1087 mul_261_52/g2367
*1088 mul_261_52/g2368
*1089 mul_261_52/g2369
*1090 mul_261_52/g2370
*1091 mul_261_52/g2371
*1092 mul_261_52/g2372
*1093 mul_261_52/g2373
*1094 mul_261_52/g2374
*1095 mul_261_52/g2375
*1096 mul_261_52/g2376
*1097 mul_261_52/g2377
*1098 mul_261_52/g2378
*1099 mul_261_52/g2379
*1100 mul_261_52/g2380
*1101 mul_261_52/g2381
*1102 mul_261_52/g2382
*1103 mul_261_52/g2383
*1104 mul_261_52/g2384
*1105 mul_261_52/g2385
*1106 mul_261_52/g2386
*1107 mul_261_52/g2387
*1108 mul_261_52/g2388
*1109 mul_261_52/g2389
*1110 mul_261_52/g2390
*1111 mul_261_52/g2391
*1112 mul_261_52/g2392
*1113 mul_261_52/g2393
*1114 mul_261_52/g2394
*1115 mul_261_52/g2395
*1116 mul_261_52/g2396
*1117 mul_261_52/g2397
*1118 mul_261_52/g2398
*1119 mul_261_52/g2399
*1120 mul_261_52/g2400
*1121 mul_261_52/g2401
*1122 mul_261_52/g2402
*1123 mul_261_52/g2403
*1124 mul_261_52/g2404
*1125 mul_261_52/g2405
*1126 mul_261_52/g2406
*1127 mul_261_52/g2407
*1128 mul_261_52/g2408
*1129 mul_261_52/g2409
*1130 mul_261_52/g2410
*1131 mul_261_52/g2411
*1132 mul_261_52/g2412
*1133 mul_261_52/g2413
*1134 mul_261_52/g2414
*1135 mul_261_52/g2415
*1136 mul_261_52/g2416
*1137 mul_261_52/g2417
*1138 mul_261_52/g2418
*1139 mul_261_52/g2419
*1140 mul_261_52/g2420
*1141 mul_261_52/g2421
*1142 mul_261_52/g2422
*1143 mul_261_52/g2423
*1144 mul_261_52/g2424
*1145 mul_261_52/g2425
*1146 mul_261_52/g2426
*1147 mul_261_52/g2427
*1148 mul_261_52/g2428
*1149 mul_261_52/g2429
*1150 mul_261_52/g2430
*1151 mul_261_52/g2431
*1152 mul_261_52/g2432
*1153 mul_261_52/g2433
*1154 mul_261_52/g2434
*1155 mul_261_52/g2435
*1156 mul_261_52/g2436
*1157 mul_261_52/g2437
*1158 mul_261_52/g2438
*1159 mul_261_52/g2439
*1160 mul_261_52/g2440
*1161 mul_261_52/g2441
*1162 mul_261_52/g2442
*1163 mul_261_52/g2443
*1164 mul_261_52/g2444
*1165 mul_261_52/g2445
*1166 mul_261_52/g2446
*1167 mul_261_52/g2447
*1168 mul_261_52/g2448
*1169 mul_261_52/g2449
*1170 mul_261_52/g2450
*1171 mul_261_52/g2451
*1172 mul_261_52/g2452
*1173 mul_261_52/g2453
*1174 mul_261_52/g2454
*1175 mul_261_52/g2456
*1176 mul_261_52/g2457
*1177 mul_261_52/g2458
*1178 mul_261_52/g2459
*1179 mul_261_52/g2460
*1180 mul_261_52/g2461
*1181 mul_261_52/g2462
*1182 mul_261_52/g2463
*1183 mul_261_52/g2464
*1184 mul_261_52/g2465
*1185 mul_261_52/g2466
*1186 mul_261_52/g2467
*1187 mul_261_52/g2468
*1188 mul_261_52/g2470
*1189 mul_261_52/g2471
*1190 mul_261_52/g2472
*1191 mul_261_52/g2473
*1192 mul_261_52/g2474
*1193 mul_261_52/g2475
*1194 mul_261_52/g2476
*1195 mul_261_52/g2477
*1196 mul_261_52/g2478
*1197 mul_261_52/g2479
*1198 mul_261_52/g2480
*1199 mul_261_52/g2481
*1200 mul_261_52/g2482
*1201 mul_261_52/g2483
*1202 mul_261_52/g2484
*1203 mul_261_52/g2485
*1204 mul_261_52/g2486
*1205 mul_261_52/g2487
*1206 mul_261_52/g2488
*1207 mul_261_52/g2489
*1208 mul_261_52/g2490
*1209 mul_261_52/g2491
*1210 mul_261_52/g2492
*1211 mul_261_52/g2493
*1212 mul_261_52/g2494
*1213 mul_261_52/g2495
*1214 mul_261_52/g2496
*1215 mul_261_52/g2497
*1216 mul_261_52/g2498
*1217 mul_261_52/g2499
*1218 mul_261_52/g2500
*1219 mul_261_52/g2501
*1220 mul_261_52/g2502
*1221 mul_261_52/g2503
*1222 mul_261_52/g2504
*1223 mul_261_52/g2505
*1224 mul_261_52/g2506
*1225 mul_261_52/g2507
*1226 mul_261_52/g2508
*1227 mul_261_52/g2509
*1228 mul_261_52/g2510
*1229 mul_261_52/g2511
*1230 mul_261_52/g2512
*1231 mul_261_52/g2513
*1232 mul_261_52/g2514
*1233 mul_261_52/g2515
*1234 mul_261_52/g2516
*1235 mul_261_52/g2517
*1236 mul_261_52/g2518
*1237 mul_261_52/g2519
*1238 mul_261_52/g2520
*1239 mul_261_52/g2521
*1240 mul_261_52/g2522
*1241 mul_261_52/g2523
*1242 mul_261_52/g2524
*1243 mul_261_52/g2525
*1244 mul_261_52/g2526
*1245 mul_261_52/g2527
*1246 mul_261_52/g2528
*1247 mul_261_52/g2529
*1248 mul_261_52/g2530
*1249 mul_261_52/g2531
*1250 mul_261_52/g2532
*1251 mul_261_52/g2533
*1252 mul_261_52/g2534
*1253 mul_261_52/g2535
*1254 mul_261_52/g2536
*1255 mul_261_52/g2537
*1256 mul_261_52/g2538
*1257 mul_261_52/g2539
*1258 mul_261_52/g2540
*1259 mul_261_52/g2
*1260 g2431
*1261 g2432
*1262 g2433
*1263 g2434
*1264 g2435
*1265 g2436
*1266 g2437
*1267 g2438
*1268 g2439
*1269 g2440
*1270 g2441
*1271 g2442
*1272 g2443
*1273 g2444
*1274 g2445
*1275 g2446
*1276 g2447
*1277 g2448
*1278 g2449
*1279 g2450
*1280 g2451
*1281 g2452
*1282 g2453
*1283 g2454
*1284 g2455
*1285 g2456
*1286 g2457
*1287 g2458
*1288 g2459
*1289 g2460
*1290 g2461
*1291 g2462
*1292 g2463
*1293 g2464
*1294 g2465
*1295 g2466
*1296 g2467
*1297 g2468
*1298 g2469
*1299 g2470
*1300 g2471
*1301 g2472
*1302 g2473
*1303 g2474
*1304 g2475
*1305 g2476
*1306 g2477
*1307 g2478
*1308 g2479
*1309 g2480
*1310 g2481
*1311 g2482
*1312 g2
*1313 power_on_reg
*1314 prev_mode_state_reg\[0\]
*1315 prev_mode_state_reg\[1\]
*1316 g2809
*1317 g2810
*1318 g2812
*1319 g2813
*1320 g2814
*1321 g2815
*1322 g2816
*1323 g2818
*1324 g2819
*1325 g2820
*1326 g2821
*1327 g2822
*1328 g2823
*1329 g2824
*1330 g2825
*1331 g2826
*1332 g2827
*1333 g2828
*1334 g2829
*1335 g2832
*1336 g2833
*1337 g2834
*1338 g2836
*1339 g2837
*1340 g2838
*1341 g2839
*1342 g2840
*1343 g2841
*1344 g2842
*1345 g2843
*1346 g2844
*1347 g2845
*1348 g2846
*1349 g2847
*1350 g2848
*1351 g2849
*1352 g2850
*1353 g2851
*1354 g2852
*1355 g2853
*1356 g2854
*1357 g2855
*1358 g2856
*1359 g2857
*1360 g2859
*1361 g2860
*1362 g2861
*1363 g2862
*1364 g2863
*1365 g2864
*1366 g2865
*1367 g2866
*1368 g2867
*1369 g2868
*1370 g2870
*1371 g2871
*1372 g2872
*1373 g2876
*1374 current_state_reg\[0\]
*1375 current_state_reg\[1\]
*1376 current_state_reg\[2\]
*1377 current_state_reg\[3\]
*1378 tie_0_cell


*PORTS

*8 I *C 0 19
*9 I *C 0 22
*10 I *C 0 21
*11 I *C 0 21
*12 I *C 0 21
*13 I *C 0 20
*14 I *C 0 20
*15 I *C 0 29
*16 I *C 0 28
*17 I *C 0 29
*18 I *C 0 27
*19 I *C 0 27
*20 I *C 0 27
*21 I *C 0 26
*22 I *C 0 26
*23 I *C 0 26
*24 I *C 0 25
*25 I *C 0 25
*26 I *C 0 24
*27 I *C 0 24
*28 I *C 0 24
*29 I *C 0 23
*30 I *C 0 23
*31 I *C 0 23
*32 I *C 0 22
*33 O *C 53 22
*34 O *C 53 22
*35 O *C 53 23
*36 O *C 53 23
*37 O *C 53 23
*38 O *C 53 24
*39 O *C 53 24
*40 O *C 53 25
*41 O *C 53 25
*42 O *C 53 25
*43 O *C 53 26
*44 O *C 53 26
*45 O *C 53 27
*46 O *C 53 27
*47 O *C 53 27
*48 O *C 53 28
*49 O *C 53 22


*D_NET *1 0.000400429

*CONN
*I *1192:A I *C 31 40 *L 0.000211 *D XNOR2X1
*I *1190:A I *C 33 40 *L 0.000211 *D XNOR2X1
*I *1061:Y O *C 31 36 *L 0 *D CLKBUFX2

*CAP
1 *1:0 5.13191e-05